[root]
type=Root
children=system
eventq_index=0
full_system=false
sim_quantum=0
time_sync_enable=false
time_sync_period=100000000000
time_sync_spin_threshold=100000000

[system]
type=System
children=clk_domain cpu dvfs_handler mem_ctrls redirect_paths0 redirect_paths1 redirect_paths2 ruby sys_port_proxy voltage_domain workload
auto_unlink_shared_backstore=false
cache_line_size=64
eventq_index=0
exit_on_work_items=false
init_param=0
m5ops_base=0
mem_mode=timing
mem_ranges=0:536870912
memories=system.mem_ctrls.dram
mmap_using_noreserve=false
multi_thread=false
num_work_ids=16
readfile=
redirect_paths=system.redirect_paths0 system.redirect_paths1 system.redirect_paths2
shadow_rom_ranges=
shared_backstore=
symbolfile=
thermal_components=
thermal_model=Null
work_begin_ckpt_count=0
work_begin_cpu_id_exit=-1
work_begin_exit_count=0
work_cpus_ckpt_count=0
work_end_ckpt_count=0
work_end_exit_count=0
work_item_id=-1
workload=system.workload
system_port=system.sys_port_proxy.in_ports[0]

[system.clk_domain]
type=SrcClockDomain
clock=1000
domain_id=-1
eventq_index=0
init_perf_level=0
voltage_domain=system.voltage_domain

[system.cpu]
type=GarnetSyntheticTraffic
children=power_state
block_offset=6
clk_domain=system.clk_domain
eventq_index=0
inj_rate=0.1
inj_vnet=-1
memory_size=65536
num_dest=1
num_packets_max=-1
power_model=
power_state=system.cpu.power_state
precision=3
response_limit=5000000
sim_cycles=1000
single_dest=-1
single_sender=-1
system=system
traffic_type=uniform_random
test=system.ruby.l1_cntrl0.sequencer.in_ports[0]

[system.cpu.power_state]
type=PowerState
clk_gate_bins=20
clk_gate_max=1000000000000
clk_gate_min=1000
default_state=UNDEFINED
eventq_index=0
leaders=
possible_states=

[system.dvfs_handler]
type=DVFSHandler
domains=
enable=false
eventq_index=0
sys_clk_domain=system.clk_domain
transition_latency=100000000

[system.mem_ctrls]
type=MemCtrl
children=dram power_state
clk_domain=system.clk_domain
command_window=10000
disable_sanity_check=false
dram=system.mem_ctrls.dram
eventq_index=0
mem_sched_policy=frfcfs
min_reads_per_switch=16
min_writes_per_switch=16
power_model=
power_state=system.mem_ctrls.power_state
qos_policy=Null
qos_priorities=1
qos_priority_escalation=false
qos_q_policy=fifo
qos_requestors=               
qos_syncro_scheduler=false
qos_turnaround_policy=Null
static_backend_latency=10000
static_frontend_latency=10000
system=system
write_high_thresh_perc=85
write_low_thresh_perc=50
port=system.ruby.dir_cntrl0.memory_out_port

[system.mem_ctrls.dram]
type=DRAMInterface
children=power_state
IDD0=0.055
IDD02=0.0
IDD2N=0.032
IDD2N2=0.0
IDD2P0=0.0
IDD2P02=0.0
IDD2P1=0.032
IDD2P12=0.0
IDD3N=0.038
IDD3N2=0.0
IDD3P0=0.0
IDD3P02=0.0
IDD3P1=0.038
IDD3P12=0.0
IDD4R=0.157
IDD4R2=0.0
IDD4W=0.125
IDD4W2=0.0
IDD5=0.23500000000000001
IDD52=0.0
IDD6=0.02
IDD62=0.0
VDD=1.5
VDD2=0.0
activation_limit=4
addr_mapping=RoRaBaCoCh
bank_groups_per_rank=0
banks_per_rank=8
beats_per_clock=2
burst_length=8
clk_domain=system.clk_domain
conf_table_reported=true
data_clock_sync=false
device_bus_width=8
device_rowbuffer_size=1024
device_size=536870912
devices_per_rank=8
dll=true
enable_dram_powerdown=false
eventq_index=0
image_file=
in_addr_map=true
kvm_map=true
max_accesses_per_row=16
null=false
page_policy=open_adaptive
power_model=
power_state=system.mem_ctrls.dram.power_state
range=0:536870912
ranks_per_channel=2
read_buffer_size=32
tAAD=1250
tBURST=5000
tBURST_MAX=5000
tBURST_MIN=5000
tCCD_L=0
tCCD_L_WR=0
tCK=1250
tCL=13750
tCS=2500
tCWL=13750
tPPD=0
tRAS=35000
tRCD=13750
tRCD_WR=13750
tREFI=7800000
tRFC=260000
tRP=13750
tRRD=6000
tRRD_L=0
tRTP=7500
tRTW=2500
tWR=15000
tWTR=7500
tWTR_L=7500
tXAW=30000
tXP=6000
tXPDLL=0
tXS=270000
tXSDLL=0
two_cycle_activate=false
write_buffer_size=64

[system.mem_ctrls.dram.power_state]
type=PowerState
clk_gate_bins=20
clk_gate_max=1000000000000
clk_gate_min=1000
default_state=UNDEFINED
eventq_index=0
leaders=
possible_states=

[system.mem_ctrls.power_state]
type=PowerState
clk_gate_bins=20
clk_gate_max=1000000000000
clk_gate_min=1000
default_state=UNDEFINED
eventq_index=0
leaders=
possible_states=

[system.redirect_paths0]
type=RedirectPath
app_path=/proc
eventq_index=0
host_paths=m5out/fs/proc

[system.redirect_paths1]
type=RedirectPath
app_path=/sys
eventq_index=0
host_paths=m5out/fs/sys

[system.redirect_paths2]
type=RedirectPath
app_path=/tmp
eventq_index=0
host_paths=m5out/fs/tmp

[system.ruby]
type=RubySystem
children=clk_domain dir_cntrl0 l1_cntrl0 network power_state
access_backing_store=false
all_instructions=false
block_size_bytes=64
clk_domain=system.ruby.clk_domain
eventq_index=0
hot_lines=false
memory_size_bits=48
num_of_sequencers=1
number_of_virtual_networks=3
phys_mem=Null
power_model=
power_state=system.ruby.power_state
randomization=false
system=system

[system.ruby.clk_domain]
type=SrcClockDomain
clock=500
domain_id=-1
eventq_index=0
init_perf_level=0
voltage_domain=system.voltage_domain

[system.ruby.dir_cntrl0]
type=Directory_Controller
children=directory forwardToDir power_state requestToDir responseToDir
addr_ranges=0:536870912
buffer_size=0
clk_domain=system.ruby.clk_domain
cluster_id=0
downstream_destinations=
eventq_index=0
forwardToDir=system.ruby.dir_cntrl0.forwardToDir
mandatory_queue_latency=1
number_of_TBEs=256
power_model=
power_state=system.ruby.dir_cntrl0.power_state
recycle_latency=10
requestToDir=system.ruby.dir_cntrl0.requestToDir
responseToDir=system.ruby.dir_cntrl0.responseToDir
ruby_system=system.ruby
system=system
transitions_per_cycle=32
upstream_destinations=
version=0
memory_out_port=system.mem_ctrls.port

[system.ruby.dir_cntrl0.directory]
type=RubyDirectoryMemory
addr_ranges=0:536870912
eventq_index=0

[system.ruby.dir_cntrl0.forwardToDir]
type=MessageBuffer
allow_zero_latency=false
buffer_size=0
eventq_index=0
max_dequeue_rate=0
ordered=false
randomization=ruby_system
routing_priority=0

[system.ruby.dir_cntrl0.power_state]
type=PowerState
clk_gate_bins=20
clk_gate_max=1000000000000
clk_gate_min=1000
default_state=UNDEFINED
eventq_index=0
leaders=
possible_states=

[system.ruby.dir_cntrl0.requestToDir]
type=MessageBuffer
allow_zero_latency=false
buffer_size=0
eventq_index=0
max_dequeue_rate=0
ordered=false
randomization=ruby_system
routing_priority=0

[system.ruby.dir_cntrl0.responseToDir]
type=MessageBuffer
allow_zero_latency=false
buffer_size=0
eventq_index=0
max_dequeue_rate=0
ordered=false
randomization=ruby_system
routing_priority=0

[system.ruby.l1_cntrl0]
type=L1Cache_Controller
children=cacheMemory forwardFromCache mandatoryQueue power_state requestFromCache responseFromCache sequencer
addr_ranges=0:18446744073709551615
buffer_size=0
clk_domain=system.ruby.clk_domain
cluster_id=0
downstream_destinations=
eventq_index=0
forwardFromCache=system.ruby.l1_cntrl0.forwardFromCache
issue_latency=2
mandatoryQueue=system.ruby.l1_cntrl0.mandatoryQueue
mandatory_queue_latency=1
number_of_TBEs=256
power_model=
power_state=system.ruby.l1_cntrl0.power_state
recycle_latency=10
requestFromCache=system.ruby.l1_cntrl0.requestFromCache
responseFromCache=system.ruby.l1_cntrl0.responseFromCache
ruby_system=system.ruby
sequencer=system.ruby.l1_cntrl0.sequencer
system=system
transitions_per_cycle=32
upstream_destinations=
version=0

[system.ruby.l1_cntrl0.cacheMemory]
type=RubyCache
children=replacement_policy
assoc=2
block_size=0
dataAccessLatency=1
dataArrayBanks=1
eventq_index=0
is_icache=false
replacement_policy=system.ruby.l1_cntrl0.cacheMemory.replacement_policy
resourceStalls=false
ruby_system=system.ruby
size=65536
start_index_bit=6
tagAccessLatency=1
tagArrayBanks=1

[system.ruby.l1_cntrl0.cacheMemory.replacement_policy]
type=TreePLRURP
eventq_index=0
num_leaves=2

[system.ruby.l1_cntrl0.forwardFromCache]
type=MessageBuffer
allow_zero_latency=false
buffer_size=0
eventq_index=0
max_dequeue_rate=0
ordered=false
randomization=ruby_system
routing_priority=0

[system.ruby.l1_cntrl0.mandatoryQueue]
type=MessageBuffer
allow_zero_latency=false
buffer_size=0
eventq_index=0
max_dequeue_rate=0
ordered=false
randomization=ruby_system
routing_priority=0

[system.ruby.l1_cntrl0.power_state]
type=PowerState
clk_gate_bins=20
clk_gate_max=1000000000000
clk_gate_min=1000
default_state=UNDEFINED
eventq_index=0
leaders=
possible_states=

[system.ruby.l1_cntrl0.requestFromCache]
type=MessageBuffer
allow_zero_latency=false
buffer_size=0
eventq_index=0
max_dequeue_rate=0
ordered=false
randomization=ruby_system
routing_priority=0

[system.ruby.l1_cntrl0.responseFromCache]
type=MessageBuffer
allow_zero_latency=false
buffer_size=0
eventq_index=0
max_dequeue_rate=0
ordered=false
randomization=ruby_system
routing_priority=0

[system.ruby.l1_cntrl0.sequencer]
type=RubySequencer
children=power_state
clk_domain=system.ruby.clk_domain
coreid=99
dcache=system.ruby.l1_cntrl0.cacheMemory
deadlock_threshold=500000
eventq_index=0
garnet_standalone=true
is_cpu_sequencer=true
max_outstanding_requests=16
no_retry_on_stall=false
power_model=
power_state=system.ruby.l1_cntrl0.sequencer.power_state
ruby_system=system.ruby
support_data_reqs=true
support_inst_reqs=true
system=system
using_ruby_tester=false
version=0
in_ports=system.cpu.test

[system.ruby.l1_cntrl0.sequencer.power_state]
type=PowerState
clk_gate_bins=20
clk_gate_max=1000000000000
clk_gate_min=1000
default_state=UNDEFINED
eventq_index=0
leaders=
possible_states=

[system.ruby.network]
type=SimpleNetwork
children=ext_links0 ext_links1 int_links0 int_links1 int_links2 int_links3 power_state routers0 routers1 routers2
buffer_size=0
clk_domain=system.ruby.clk_domain
control_msg_size=8
data_msg_size=64
endpoint_bandwidth=1000
eventq_index=0
ext_links=system.ruby.network.ext_links0 system.ruby.network.ext_links1
int_links=system.ruby.network.int_links0 system.ruby.network.int_links1 system.ruby.network.int_links2 system.ruby.network.int_links3
netifs=
number_of_virtual_networks=3
physical_vnets_bandwidth=
physical_vnets_channels=
power_model=
power_state=system.ruby.network.power_state
routers=system.ruby.network.routers0 system.ruby.network.routers1 system.ruby.network.routers2
ruby_system=system.ruby
topology=Crossbar

[system.ruby.network.ext_links0]
type=SimpleExtLink
bandwidth_factor=16
eventq_index=0
ext_node=system.ruby.l1_cntrl0
int_node=system.ruby.network.routers0
latency=1
link_id=0
supported_vnets=
weight=1

[system.ruby.network.ext_links1]
type=SimpleExtLink
bandwidth_factor=16
eventq_index=0
ext_node=system.ruby.dir_cntrl0
int_node=system.ruby.network.routers1
latency=1
link_id=1
supported_vnets=
weight=1

[system.ruby.network.int_links0]
type=SimpleIntLink
children=buffers0 buffers1 buffers2
bandwidth_factor=16
buffers=system.ruby.network.int_links0.buffers0 system.ruby.network.int_links0.buffers1 system.ruby.network.int_links0.buffers2
dst_inport=
dst_node=system.ruby.network.routers2
eventq_index=0
latency=1
link_id=2
src_node=system.ruby.network.routers0
src_outport=
supported_vnets=
weight=1

[system.ruby.network.int_links0.buffers0]
type=MessageBuffer
allow_zero_latency=false
buffer_size=0
eventq_index=0
max_dequeue_rate=0
ordered=true
randomization=ruby_system
routing_priority=0

[system.ruby.network.int_links0.buffers1]
type=MessageBuffer
allow_zero_latency=false
buffer_size=0
eventq_index=0
max_dequeue_rate=0
ordered=true
randomization=ruby_system
routing_priority=0

[system.ruby.network.int_links0.buffers2]
type=MessageBuffer
allow_zero_latency=false
buffer_size=0
eventq_index=0
max_dequeue_rate=0
ordered=true
randomization=ruby_system
routing_priority=0

[system.ruby.network.int_links1]
type=SimpleIntLink
children=buffers0 buffers1 buffers2
bandwidth_factor=16
buffers=system.ruby.network.int_links1.buffers0 system.ruby.network.int_links1.buffers1 system.ruby.network.int_links1.buffers2
dst_inport=
dst_node=system.ruby.network.routers2
eventq_index=0
latency=1
link_id=3
src_node=system.ruby.network.routers1
src_outport=
supported_vnets=
weight=1

[system.ruby.network.int_links1.buffers0]
type=MessageBuffer
allow_zero_latency=false
buffer_size=0
eventq_index=0
max_dequeue_rate=0
ordered=true
randomization=ruby_system
routing_priority=0

[system.ruby.network.int_links1.buffers1]
type=MessageBuffer
allow_zero_latency=false
buffer_size=0
eventq_index=0
max_dequeue_rate=0
ordered=true
randomization=ruby_system
routing_priority=0

[system.ruby.network.int_links1.buffers2]
type=MessageBuffer
allow_zero_latency=false
buffer_size=0
eventq_index=0
max_dequeue_rate=0
ordered=true
randomization=ruby_system
routing_priority=0

[system.ruby.network.int_links2]
type=SimpleIntLink
children=buffers0 buffers1 buffers2
bandwidth_factor=16
buffers=system.ruby.network.int_links2.buffers0 system.ruby.network.int_links2.buffers1 system.ruby.network.int_links2.buffers2
dst_inport=
dst_node=system.ruby.network.routers0
eventq_index=0
latency=1
link_id=4
src_node=system.ruby.network.routers2
src_outport=
supported_vnets=
weight=1

[system.ruby.network.int_links2.buffers0]
type=MessageBuffer
allow_zero_latency=false
buffer_size=0
eventq_index=0
max_dequeue_rate=0
ordered=true
randomization=ruby_system
routing_priority=0

[system.ruby.network.int_links2.buffers1]
type=MessageBuffer
allow_zero_latency=false
buffer_size=0
eventq_index=0
max_dequeue_rate=0
ordered=true
randomization=ruby_system
routing_priority=0

[system.ruby.network.int_links2.buffers2]
type=MessageBuffer
allow_zero_latency=false
buffer_size=0
eventq_index=0
max_dequeue_rate=0
ordered=true
randomization=ruby_system
routing_priority=0

[system.ruby.network.int_links3]
type=SimpleIntLink
children=buffers0 buffers1 buffers2
bandwidth_factor=16
buffers=system.ruby.network.int_links3.buffers0 system.ruby.network.int_links3.buffers1 system.ruby.network.int_links3.buffers2
dst_inport=
dst_node=system.ruby.network.routers1
eventq_index=0
latency=1
link_id=5
src_node=system.ruby.network.routers2
src_outport=
supported_vnets=
weight=1

[system.ruby.network.int_links3.buffers0]
type=MessageBuffer
allow_zero_latency=false
buffer_size=0
eventq_index=0
max_dequeue_rate=0
ordered=true
randomization=ruby_system
routing_priority=0

[system.ruby.network.int_links3.buffers1]
type=MessageBuffer
allow_zero_latency=false
buffer_size=0
eventq_index=0
max_dequeue_rate=0
ordered=true
randomization=ruby_system
routing_priority=0

[system.ruby.network.int_links3.buffers2]
type=MessageBuffer
allow_zero_latency=false
buffer_size=0
eventq_index=0
max_dequeue_rate=0
ordered=true
randomization=ruby_system
routing_priority=0

[system.ruby.network.power_state]
type=PowerState
clk_gate_bins=20
clk_gate_max=1000000000000
clk_gate_min=1000
default_state=UNDEFINED
eventq_index=0
leaders=
possible_states=

[system.ruby.network.routers0]
type=Switch
children=port_buffers0 port_buffers1 port_buffers2 port_buffers3 port_buffers4 port_buffers5 power_state routing_unit
clk_domain=system.ruby.clk_domain
eventq_index=0
ext_routing_latency=1
int_routing_latency=1
latency=1
port_buffers=system.ruby.network.routers0.port_buffers0 system.ruby.network.routers0.port_buffers1 system.ruby.network.routers0.port_buffers2 system.ruby.network.routers0.port_buffers3 system.ruby.network.routers0.port_buffers4 system.ruby.network.routers0.port_buffers5
power_model=
power_state=system.ruby.network.routers0.power_state
router_id=0
routing_unit=system.ruby.network.routers0.routing_unit
virt_nets=3

[system.ruby.network.routers0.port_buffers0]
type=MessageBuffer
allow_zero_latency=true
buffer_size=0
eventq_index=0
max_dequeue_rate=0
ordered=true
randomization=ruby_system
routing_priority=0

[system.ruby.network.routers0.port_buffers1]
type=MessageBuffer
allow_zero_latency=true
buffer_size=0
eventq_index=0
max_dequeue_rate=0
ordered=true
randomization=ruby_system
routing_priority=0

[system.ruby.network.routers0.port_buffers2]
type=MessageBuffer
allow_zero_latency=true
buffer_size=0
eventq_index=0
max_dequeue_rate=0
ordered=true
randomization=ruby_system
routing_priority=0

[system.ruby.network.routers0.port_buffers3]
type=MessageBuffer
allow_zero_latency=true
buffer_size=0
eventq_index=0
max_dequeue_rate=0
ordered=true
randomization=ruby_system
routing_priority=0

[system.ruby.network.routers0.port_buffers4]
type=MessageBuffer
allow_zero_latency=true
buffer_size=0
eventq_index=0
max_dequeue_rate=0
ordered=true
randomization=ruby_system
routing_priority=0

[system.ruby.network.routers0.port_buffers5]
type=MessageBuffer
allow_zero_latency=true
buffer_size=0
eventq_index=0
max_dequeue_rate=0
ordered=true
randomization=ruby_system
routing_priority=0

[system.ruby.network.routers0.power_state]
type=PowerState
clk_gate_bins=20
clk_gate_max=1000000000000
clk_gate_min=1000
default_state=UNDEFINED
eventq_index=0
leaders=
possible_states=

[system.ruby.network.routers0.routing_unit]
type=WeightBased
adaptive_routing=false
eventq_index=0

[system.ruby.network.routers1]
type=Switch
children=port_buffers0 port_buffers1 port_buffers2 port_buffers3 port_buffers4 port_buffers5 power_state routing_unit
clk_domain=system.ruby.clk_domain
eventq_index=0
ext_routing_latency=1
int_routing_latency=1
latency=1
port_buffers=system.ruby.network.routers1.port_buffers0 system.ruby.network.routers1.port_buffers1 system.ruby.network.routers1.port_buffers2 system.ruby.network.routers1.port_buffers3 system.ruby.network.routers1.port_buffers4 system.ruby.network.routers1.port_buffers5
power_model=
power_state=system.ruby.network.routers1.power_state
router_id=1
routing_unit=system.ruby.network.routers1.routing_unit
virt_nets=3

[system.ruby.network.routers1.port_buffers0]
type=MessageBuffer
allow_zero_latency=true
buffer_size=0
eventq_index=0
max_dequeue_rate=0
ordered=true
randomization=ruby_system
routing_priority=0

[system.ruby.network.routers1.port_buffers1]
type=MessageBuffer
allow_zero_latency=true
buffer_size=0
eventq_index=0
max_dequeue_rate=0
ordered=true
randomization=ruby_system
routing_priority=0

[system.ruby.network.routers1.port_buffers2]
type=MessageBuffer
allow_zero_latency=true
buffer_size=0
eventq_index=0
max_dequeue_rate=0
ordered=true
randomization=ruby_system
routing_priority=0

[system.ruby.network.routers1.port_buffers3]
type=MessageBuffer
allow_zero_latency=true
buffer_size=0
eventq_index=0
max_dequeue_rate=0
ordered=true
randomization=ruby_system
routing_priority=0

[system.ruby.network.routers1.port_buffers4]
type=MessageBuffer
allow_zero_latency=true
buffer_size=0
eventq_index=0
max_dequeue_rate=0
ordered=true
randomization=ruby_system
routing_priority=0

[system.ruby.network.routers1.port_buffers5]
type=MessageBuffer
allow_zero_latency=true
buffer_size=0
eventq_index=0
max_dequeue_rate=0
ordered=true
randomization=ruby_system
routing_priority=0

[system.ruby.network.routers1.power_state]
type=PowerState
clk_gate_bins=20
clk_gate_max=1000000000000
clk_gate_min=1000
default_state=UNDEFINED
eventq_index=0
leaders=
possible_states=

[system.ruby.network.routers1.routing_unit]
type=WeightBased
adaptive_routing=false
eventq_index=0

[system.ruby.network.routers2]
type=Switch
children=port_buffers0 port_buffers1 port_buffers2 port_buffers3 port_buffers4 port_buffers5 power_state routing_unit
clk_domain=system.ruby.clk_domain
eventq_index=0
ext_routing_latency=1
int_routing_latency=1
latency=1
port_buffers=system.ruby.network.routers2.port_buffers0 system.ruby.network.routers2.port_buffers1 system.ruby.network.routers2.port_buffers2 system.ruby.network.routers2.port_buffers3 system.ruby.network.routers2.port_buffers4 system.ruby.network.routers2.port_buffers5
power_model=
power_state=system.ruby.network.routers2.power_state
router_id=2
routing_unit=system.ruby.network.routers2.routing_unit
virt_nets=3

[system.ruby.network.routers2.port_buffers0]
type=MessageBuffer
allow_zero_latency=true
buffer_size=0
eventq_index=0
max_dequeue_rate=0
ordered=true
randomization=ruby_system
routing_priority=0

[system.ruby.network.routers2.port_buffers1]
type=MessageBuffer
allow_zero_latency=true
buffer_size=0
eventq_index=0
max_dequeue_rate=0
ordered=true
randomization=ruby_system
routing_priority=0

[system.ruby.network.routers2.port_buffers2]
type=MessageBuffer
allow_zero_latency=true
buffer_size=0
eventq_index=0
max_dequeue_rate=0
ordered=true
randomization=ruby_system
routing_priority=0

[system.ruby.network.routers2.port_buffers3]
type=MessageBuffer
allow_zero_latency=true
buffer_size=0
eventq_index=0
max_dequeue_rate=0
ordered=true
randomization=ruby_system
routing_priority=0

[system.ruby.network.routers2.port_buffers4]
type=MessageBuffer
allow_zero_latency=true
buffer_size=0
eventq_index=0
max_dequeue_rate=0
ordered=true
randomization=ruby_system
routing_priority=0

[system.ruby.network.routers2.port_buffers5]
type=MessageBuffer
allow_zero_latency=true
buffer_size=0
eventq_index=0
max_dequeue_rate=0
ordered=true
randomization=ruby_system
routing_priority=0

[system.ruby.network.routers2.power_state]
type=PowerState
clk_gate_bins=20
clk_gate_max=1000000000000
clk_gate_min=1000
default_state=UNDEFINED
eventq_index=0
leaders=
possible_states=

[system.ruby.network.routers2.routing_unit]
type=WeightBased
adaptive_routing=false
eventq_index=0

[system.ruby.power_state]
type=PowerState
clk_gate_bins=20
clk_gate_max=1000000000000
clk_gate_min=1000
default_state=UNDEFINED
eventq_index=0
leaders=
possible_states=

[system.sys_port_proxy]
type=RubyPortProxy
children=power_state
clk_domain=system.clk_domain
eventq_index=0
is_cpu_sequencer=true
no_retry_on_stall=false
power_model=
power_state=system.sys_port_proxy.power_state
ruby_system=system.ruby
support_data_reqs=true
support_inst_reqs=true
system=system
using_ruby_tester=false
version=0
in_ports=system.system_port

[system.sys_port_proxy.power_state]
type=PowerState
clk_gate_bins=20
clk_gate_max=1000000000000
clk_gate_min=1000
default_state=UNDEFINED
eventq_index=0
leaders=
possible_states=

[system.voltage_domain]
type=VoltageDomain
eventq_index=0
voltage=1.0

[system.workload]
type=StubWorkload
byte_order=little
entry=0
eventq_index=0
remote_gdb_port=7000
wait_for_remote_gdb=false

